BEGIN OPTIONS
  ALTERNATIVE_CELL_AVERAGING AMT-HMK
  DRY_CELL_SATURATION
  PRINT_FLOWS
END OPTIONS

BEGIN GRIDDATA
  ICELLTYPE
    CONSTANT 1

  K
    INTERNAL
     0.84758389999999995  0.84758389999999995  0.84758389999999995  0.84758389999999995  0.84758389999999995  0.84758389999999995  0.84758389999999995  0.84758389999999995  0.84758389999999995  0.84758389999999995
     0.84758389999999995  0.84758389999999995  0.84758389999999995  0.84758389999999995  0.84758389999999995  0.84758389999999995  0.84758389999999995  0.84758389999999995  0.84758389999999995  0.84758389999999995
     0.84758389999999995  0.84758389999999995  0.84758389999999995  0.84758389999999995  0.84758389999999995  0.84758389999999995  0.84758389999999995  0.84758389999999995  0.84758389999999995  0.84758389999999995
     0.84758389999999995  0.84758389999999995  0.84758389999999995  0.84758389999999995  0.84758389999999995  0.84758389999999995  0.84758389999999995  0.84758389999999995  0.84758389999999995  0.84758389999999995
     0.84758389999999995  0.84758389999999995  0.84758389999999995  0.84758389999999995  0.84758389999999995  0.84758389999999995  0.84758389999999995  0.84758389999999995  0.84758389999999995  0.84758389999999995
     0.84758389999999995  0.84758389999999995  0.84758389999999995  0.84758389999999995  0.84758389999999995  0.84758389999999995  0.84758389999999995  0.84758389999999995  0.84758389999999995  0.84758389999999995
     0.84758389999999995  0.84758389999999995  0.84758389999999995  0.84758389999999995  0.84758389999999995  0.84758389999999995  0.84758389999999995  0.84758389999999995  0.84758389999999995  0.84758389999999995
     0.84758389999999995  0.84758389999999995  0.84758389999999995  0.84758389999999995  0.84758389999999995  0.84758389999999995  0.84758389999999995  0.84758389999999995  0.84758389999999995  0.84758389999999995
     0.84758389999999995  0.84758389999999995  0.84758389999999995  0.84758389999999995  0.84758389999999995  0.84758389999999995  0.84758389999999995  0.84758389999999995  0.84758389999999995  0.84758389999999995
     0.84758389999999995  0.84758389999999995  0.84758389999999995  0.84758389999999995  0.84758389999999995  0.84758389999999995  0.84758389999999995  0.84758389999999995  0.84758389999999995  0.84758389999999995
     0.84758389999999995  0.84758389999999995  0.84758389999999995  0.84758389999999995  0.84758389999999995  0.84758389999999995  0.84758389999999995  0.84758389999999995  0.84758389999999995  0.84758389999999995
     0.84758389999999995  0.84758389999999995  0.84758389999999995  0.84758389999999995  0.84758389999999995  0.84758389999999995  0.84758389999999995  0.84758389999999995  0.84758389999999995  0.84758389999999995
     0.84758389999999995  0.84758389999999995  0.84758389999999995  0.84758389999999995  0.84758389999999995  0.84758389999999995  0.84758389999999995  0.84758389999999995  0.84758389999999995  0.84758389999999995
     0.84758389999999995  0.84758389999999995  0.84758389999999995  0.84758389999999995  0.84758389999999995  0.84758389999999995  0.84758389999999995  0.84758389999999995  0.84758389999999995  0.84758389999999995
     0.84758389999999995  0.84758389999999995  0.84758389999999995  0.84758389999999995  0.84758389999999995  0.84758389999999995  0.84758389999999995  0.84758389999999995  0.84758389999999995  0.84758389999999995
     0.84758389999999995  0.84758389999999995  0.84758389999999995  0.84758389999999995  0.84758389999999995  0.84758389999999995  0.84758389999999995  0.84758389999999995  0.84758389999999995  0.84758389999999995
     0.84758389999999995  0.84758389999999995  0.84758389999999995  0.84758389999999995  0.84758389999999995  0.84758389999999995  0.84758389999999995  0.84758389999999995  0.84758389999999995  0.84758389999999995
     0.84758389999999995  0.84758389999999995  0.84758389999999995  0.84758389999999995  0.84758389999999995  0.84758389999999995  0.84758389999999995  0.84758389999999995  0.84758389999999995  0.84758389999999995
     0.84758389999999995  0.84758389999999995  0.84758389999999995  0.84758389999999995  0.84758389999999995  0.84758389999999995  0.84758389999999995  0.84758389999999995  0.84758389999999995  0.84758389999999995
     0.84758389999999995  0.84758389999999995  0.84758389999999995  0.84758389999999995  0.84758389999999995  0.84758389999999995  0.84758389999999995  0.84758389999999995  0.84758389999999995  0.84758389999999995
     0.84758389999999995  0.84758389999999995  0.84758389999999995  0.84758389999999995  0.84758389999999995  0.84758389999999995  0.84758389999999995  0.84758389999999995  0.84758389999999995  0.84758389999999995
     0.84758389999999995  0.84758389999999995  0.84758389999999995  0.84758389999999995  0.84758389999999995  0.84758389999999995  0.84758389999999995  0.84758389999999995  0.84758389999999995  0.84758389999999995
     0.84758389999999995  0.84758389999999995  0.84758389999999995  0.84758389999999995  0.84758389999999995  0.84758389999999995  0.84758389999999995  0.84758389999999995  0.84758389999999995  0.84758389999999995
     0.84758389999999995  0.84758389999999995  0.84758389999999995  0.84758389999999995  0.84758389999999995  0.84758389999999995  0.84758389999999995  0.84758389999999995  0.84758389999999995  0.84758389999999995
     0.84758389999999995  0.84758389999999995  0.84758389999999995  0.84758389999999995  0.84758389999999995  0.84758389999999995  0.84758389999999995  0.84758389999999995  0.84758389999999995  0.84758389999999995
     0.84758389999999995  0.84758389999999995  0.84758389999999995  0.84758389999999995  0.84758389999999995  0.84758389999999995  0.84758389999999995  0.84758389999999995  0.84758389999999995  0.84758389999999995
     0.84758389999999995  0.84758389999999995  0.84758389999999995  0.84758389999999995  0.84758389999999995  0.84758389999999995  0.84758389999999995  0.84758389999999995  0.84758389999999995  0.84758389999999995
     0.84758389999999995  0.84758389999999995  0.84758389999999995  0.84758389999999995  0.84758389999999995  0.84758389999999995  0.84758389999999995  0.84758389999999995  0.84758389999999995  0.84758389999999995
     0.84758389999999995  0.84758389999999995  0.84758389999999995  0.84758389999999995  0.84758389999999995  0.84758389999999995  0.84758389999999995  0.84758389999999995  0.84758389999999995  0.84758389999999995
     0.84758389999999995  0.84758389999999995  0.84758389999999995  0.84758389999999995  0.84758389999999995  0.84758389999999995  0.84758389999999995  0.84758389999999995  0.84758389999999995  0.84758389999999995
     0.84758389999999995  0.84758389999999995  0.84758389999999995  0.84758389999999995  0.84758389999999995  0.84758389999999995  0.84758389999999995  0.84758389999999995  0.84758389999999995  0.84758389999999995
     0.84758389999999995  0.84758389999999995  0.84758389999999995  0.84758389999999995  0.84758389999999995  0.84758389999999995  0.84758389999999995  0.84758389999999995  0.84758389999999995  0.84758389999999995
     0.84758389999999995  0.84758389999999995  0.84758389999999995  0.84758389999999995  0.84758389999999995  0.84758389999999995  0.84758389999999995  0.84758389999999995  0.84758389999999995  0.84758389999999995
     0.84758389999999995  0.84758389999999995  0.84758389999999995  0.84758389999999995  0.84758389999999995  0.84758389999999995  0.84758389999999995  0.84758389999999995  0.84758389999999995  0.84758389999999995
     0.84758389999999995  0.84758389999999995  0.84758389999999995  0.84758389999999995  0.84758389999999995  0.84758389999999995  0.84758389999999995  0.84758389999999995  0.84758389999999995  0.84758389999999995
     0.84758389999999995  0.84758389999999995  0.84758389999999995  0.84758389999999995  0.84758389999999995  0.84758389999999995  0.84758389999999995  0.84758389999999995  0.84758389999999995  0.84758389999999995
     0.84758389999999995  0.84758389999999995  0.84758389999999995  0.84758389999999995  0.84758389999999995  0.84758389999999995  0.84758389999999995  0.84758389999999995  0.84758389999999995  0.84758389999999995
     0.84758389999999995  0.84758389999999995  0.84758389999999995  0.84758389999999995  0.84758389999999995  0.84758389999999995  0.84758389999999995  0.84758389999999995  0.84758389999999995  0.84758389999999995
     0.84758389999999995  0.84758389999999995  0.84758389999999995  0.84758389999999995  0.84758389999999995  0.84758389999999995  0.84758389999999995  0.84758389999999995  0.84758389999999995  0.84758389999999995
     0.84758389999999995  0.84758389999999995  0.84758389999999995  0.84758389999999995  0.84758389999999995  0.84758389999999995  0.84758389999999995  0.84758389999999995  0.84758389999999995  0.84758389999999995
     0.84758389999999995  0.84758389999999995  0.84758389999999995  0.84758389999999995  0.84758389999999995  0.84758389999999995  0.84758389999999995  0.84758389999999995  0.84758389999999995  0.84758389999999995
     0.84758389999999995  0.84758389999999995  0.84758389999999995  0.84758389999999995  0.84758389999999995  0.84758389999999995  0.84758389999999995  0.84758389999999995  0.84758389999999995  0.84758389999999995
     0.84758389999999995  0.84758389999999995  0.84758389999999995  0.84758389999999995  0.84758389999999995  0.84758389999999995  0.84758389999999995  0.84758389999999995  0.84758389999999995  0.84758389999999995
     0.84758389999999995  0.84758389999999995  0.84758389999999995  0.84758389999999995  0.84758389999999995  0.84758389999999995  0.84758389999999995  0.84758389999999995  0.84758389999999995  0.84758389999999995
     0.84758389999999995  0.84758389999999995  0.84758389999999995  0.84758389999999995  0.84758389999999995  0.84758389999999995  0.84758389999999995  0.84758389999999995  0.84758389999999995  0.84758389999999995
     0.84758389999999995  0.84758389999999995  0.84758389999999995  0.84758389999999995  0.84758389999999995  0.84758389999999995  0.84758389999999995  0.84758389999999995  0.84758389999999995  0.84758389999999995
     0.84758389999999995  0.84758389999999995  0.84758389999999995  0.84758389999999995  0.84758389999999995  0.84758389999999995  0.84758389999999995  0.84758389999999995  0.84758389999999995  0.84758389999999995
     0.84758389999999995  0.84758389999999995  0.84758389999999995  0.84758389999999995  0.84758389999999995  0.84758389999999995  0.84758389999999995  0.84758389999999995  0.84758389999999995  0.84758389999999995
     0.84758389999999995  0.84758389999999995  0.84758389999999995  0.84758389999999995  0.84758389999999995  0.84758389999999995  0.84758389999999995  0.84758389999999995  0.84758389999999995  0.84758389999999995
     0.84758389999999995  0.84758389999999995  0.84758389999999995  0.84758389999999995  0.84758389999999995  0.84758389999999995  0.84758389999999995  0.84758389999999995  0.84758389999999995  0.84758389999999995
     0.84758389999999995  0.84758389999999995  0.84758389999999995  0.84758389999999995  0.84758389999999995  0.84758389999999995  0.84758389999999995  0.84758389999999995  0.84758389999999995  0.84758389999999995
     0.84758389999999995  0.84758389999999995  0.84758389999999995  0.84758389999999995  0.84758389999999995  0.84758389999999995  0.84758389999999995  0.84758389999999995  0.84758389999999995  0.84758389999999995
     0.84758389999999995  0.84758389999999995  0.84758389999999995  0.84758389999999995  0.84758389999999995  0.84758389999999995  0.84758389999999995  0.84758389999999995  0.84758389999999995  0.84758389999999995
     0.84758389999999995  0.84758389999999995  0.84758389999999995  0.84758389999999995  0.84758389999999995  0.84758389999999995  0.84758389999999995  0.84758389999999995  0.84758389999999995  0.84758389999999995
     0.84758389999999995  0.84758389999999995  0.84758389999999995  0.84758389999999995  0.84758389999999995  0.84758389999999995  0.84758389999999995  0.84758389999999995  0.84758389999999995  0.84758389999999995
     0.84758389999999995  0.84758389999999995  0.84758389999999995  0.84758389999999995  0.84758389999999995  0.84758389999999995  0.84758389999999995  0.84758389999999995  0.84758389999999995  0.84758389999999995
     0.84758389999999995  0.84758389999999995  0.84758389999999995  0.84758389999999995  0.84758389999999995  0.84758389999999995  0.84758389999999995  0.84758389999999995  0.84758389999999995  0.84758389999999995
     0.84758389999999995  0.84758389999999995  0.84758389999999995  0.84758389999999995  0.84758389999999995  0.84758389999999995  0.84758389999999995  0.84758389999999995  0.84758389999999995  0.84758389999999995
     0.84758389999999995  0.84758389999999995  0.84758389999999995  0.84758389999999995  0.84758389999999995  0.84758389999999995  0.84758389999999995  0.84758389999999995  0.84758389999999995  0.84758389999999995
     0.84758389999999995  0.84758389999999995  0.84758389999999995  0.84758389999999995  0.84758389999999995  0.84758389999999995  0.84758389999999995  0.84758389999999995  0.84758389999999995  0.84758389999999995
     0.84758389999999995  0.84758389999999995  0.84758389999999995  0.84758389999999995  0.84758389999999995  0.84758389999999995  0.84758389999999995  0.84758389999999995  0.84758389999999995  0.84758389999999995
     0.84758389999999995  0.84758389999999995  0.84758389999999995  0.84758389999999995  0.84758389999999995  0.84758389999999995  0.84758389999999995  0.84758389999999995  0.84758389999999995  0.84758389999999995
     0.84758389999999995  0.84758389999999995  0.84758389999999995  0.84758389999999995  0.84758389999999995  0.84758389999999995  0.84758389999999995  0.84758389999999995  0.84758389999999995  0.84758389999999995
     0.84758389999999995  0.84758389999999995  0.84758389999999995  0.84758389999999995  0.84758389999999995  0.84758389999999995  0.84758389999999995  0.84758389999999995  0.84758389999999995  0.84758389999999995
     0.84758389999999995  0.84758389999999995  0.84758389999999995  0.84758389999999995  0.84758389999999995  0.84758389999999995  0.84758389999999995  0.84758389999999995  0.84758389999999995  0.84758389999999995
     0.84758389999999995  0.84758389999999995  0.84758389999999995  0.84758389999999995  0.84758389999999995  0.84758389999999995  0.84758389999999995  0.84758389999999995  0.84758389999999995  0.84758389999999995
     0.84758389999999995  0.84758389999999995  0.84758389999999995  0.84758389999999995  0.84758389999999995  0.84758389999999995  0.84758389999999995  0.84758389999999995  0.84758389999999995  0.84758389999999995
     0.84758389999999995  0.84758389999999995  0.84758389999999995  0.84758389999999995  0.84758389999999995  0.84758389999999995  0.84758389999999995  0.84758389999999995  0.84758389999999995  0.84758389999999995
     0.84758389999999995  0.84758389999999995  0.84758389999999995  0.84758389999999995  0.84758389999999995  0.84758389999999995  0.84758389999999995  0.84758389999999995  0.84758389999999995  0.84758389999999995
     0.84758389999999995  0.84758389999999995  0.84758389999999995  0.84758389999999995  0.84758389999999995  0.84758389999999995  0.84758389999999995  0.84758389999999995  0.84758389999999995  0.84758389999999995
     0.84758389999999995  0.84758389999999995  0.84758389999999995  0.84758389999999995  0.84758389999999995  0.84758389999999995  0.84758389999999995  0.84758389999999995  0.84758389999999995  0.84758389999999995
     0.84758389999999995  0.84758389999999995  0.84758389999999995  0.84758389999999995  0.84758389999999995  0.84758389999999995  0.84758389999999995  0.84758389999999995  0.84758389999999995  0.84758389999999995
     0.84758389999999995  0.84758389999999995  0.84758389999999995  0.84758389999999995  0.84758389999999995  0.84758389999999995  0.84758389999999995  0.84758389999999995  0.84758389999999995  0.84758389999999995
     0.84758389999999995  0.84758389999999995  0.84758389999999995  0.84758389999999995  0.84758389999999995  0.84758389999999995  0.84758389999999995  0.84758389999999995  0.84758389999999995  0.84758389999999995
     0.84758389999999995  0.84758389999999995  0.84758389999999995  0.84758389999999995  0.84758389999999995  0.84758389999999995  0.84758389999999995  0.84758389999999995  0.84758389999999995  0.84758389999999995
     0.84758389999999995  0.84758389999999995  0.84758389999999995  0.84758389999999995  0.84758389999999995  0.84758389999999995  0.84758389999999995  0.84758389999999995  0.84758389999999995  0.84758389999999995
     0.84758389999999995  0.84758389999999995  0.84758389999999995  0.84758389999999995  0.84758389999999995  0.84758389999999995  0.84758389999999995  0.84758389999999995  0.84758389999999995  0.84758389999999995
     0.84758389999999995  0.84758389999999995  0.84758389999999995  0.84758389999999995  0.84758389999999995  0.84758389999999995  0.84758389999999995  0.84758389999999995  0.84758389999999995  0.84758389999999995
     0.84758389999999995  0.84758389999999995  0.84758389999999995  0.84758389999999995  0.84758389999999995  0.84758389999999995  0.84758389999999995  0.84758389999999995  0.84758389999999995  0.84758389999999995
     0.84758389999999995  0.84758389999999995  0.84758389999999995  0.84758389999999995  0.84758389999999995  0.84758389999999995  0.84758389999999995  0.84758389999999995  0.84758389999999995  0.84758389999999995
     0.84758389999999995  0.84758389999999995  0.84758389999999995  0.84758389999999995  0.84758389999999995  0.84758389999999995  0.84758389999999995  0.84758389999999995  0.84758389999999995  0.84758389999999995
     0.84758389999999995  0.84758389999999995  0.84758389999999995  0.84758389999999995  0.84758389999999995  0.84758389999999995  0.84758389999999995  0.84758389999999995  0.84758389999999995  0.84758389999999995
     0.84758389999999995  0.84758389999999995  0.84758389999999995  0.84758389999999995  0.84758389999999995  0.84758389999999995  0.84758389999999995  0.84758389999999995  0.84758389999999995  0.84758389999999995
     0.84758389999999995  0.84758389999999995  0.84758389999999995  0.84758389999999995  0.84758389999999995  0.84758389999999995  0.84758389999999995  0.84758389999999995  0.84758389999999995  0.84758389999999995
     0.84758389999999995  0.84758389999999995  0.84758389999999995  0.84758389999999995  0.84758389999999995  0.84758389999999995  0.84758389999999995  0.84758389999999995  0.84758389999999995  0.84758389999999995
     0.84758389999999995  0.84758389999999995  0.84758389999999995  0.84758389999999995  0.84758389999999995  0.84758389999999995  0.84758389999999995  0.84758389999999995  0.84758389999999995  0.84758389999999995
     0.84758389999999995  0.84758389999999995  0.84758389999999995  0.84758389999999995  0.84758389999999995  0.84758389999999995  0.84758389999999995  0.84758389999999995  0.84758389999999995  0.84758389999999995
     0.84758389999999995  0.84758389999999995  0.84758389999999995  0.84758389999999995  0.84758389999999995  0.84758389999999995  0.84758389999999995  0.84758389999999995  0.84758389999999995  0.84758389999999995
     0.84758389999999995  0.84758389999999995  0.84758389999999995  0.84758389999999995  0.84758389999999995  0.84758389999999995  0.84758389999999995  0.84758389999999995  0.84758389999999995  0.84758389999999995
     0.84758389999999995  0.84758389999999995  0.84758389999999995  0.84758389999999995  0.84758389999999995  0.84758389999999995  0.84758389999999995  0.84758389999999995  0.84758389999999995  0.84758389999999995
     0.84758389999999995  0.84758389999999995  0.84758389999999995  0.84758389999999995  0.84758389999999995  0.84758389999999995  0.84758389999999995  0.84758389999999995  0.84758389999999995  0.84758389999999995
     0.84758389999999995  0.84758389999999995  0.84758389999999995  0.84758389999999995  0.84758389999999995  0.84758389999999995  0.84758389999999995  0.84758389999999995  0.84758389999999995  0.84758389999999995
     0.84758389999999995  0.84758389999999995  0.84758389999999995  0.84758389999999995  0.84758389999999995  0.84758389999999995  0.84758389999999995  0.84758389999999995  0.84758389999999995  0.84758389999999995
     0.84758389999999995  0.84758389999999995  0.84758389999999995  0.84758389999999995  0.84758389999999995  0.84758389999999995  0.84758389999999995  0.84758389999999995  0.84758389999999995  0.84758389999999995
     0.84758389999999995  0.84758389999999995  0.84758389999999995  0.84758389999999995  0.84758389999999995  0.84758389999999995  0.84758389999999995  0.84758389999999995  0.84758389999999995  0.84758389999999995
     0.84758389999999995  0.84758389999999995  0.84758389999999995  0.84758389999999995  0.84758389999999995  0.84758389999999995  0.84758389999999995  0.84758389999999995  0.84758389999999995  0.84758389999999995
     0.84758389999999995  0.84758389999999995  0.84758389999999995  0.84758389999999995  0.84758389999999995  0.84758389999999995  0.84758389999999995  0.84758389999999995  0.84758389999999995  0.84758389999999995
     0.84758389999999995  0.84758389999999995  0.84758389999999995  0.84758389999999995  0.84758389999999995  0.84758389999999995  0.84758389999999995  0.84758389999999995  0.84758389999999995  0.84758389999999995
     0.84758389999999995  0.84758389999999995  0.84758389999999995  0.84758389999999995  0.84758389999999995  0.84758389999999995  0.84758389999999995  0.84758389999999995  0.84758389999999995  0.84758389999999995
     0.84758389999999995  0.84758389999999995  0.84758389999999995  0.84758389999999995  0.84758389999999995  0.84758389999999995  0.84758389999999995  0.84758389999999995  0.84758389999999995  0.84758389999999995
     0.84758389999999995  0.84758389999999995  0.84758389999999995  0.84758389999999995  0.84758389999999995  0.84758389999999995  0.84758389999999995  0.84758389999999995  0.84758389999999995  0.84758389999999995
     0.84758389999999995  0.84758389999999995  0.84758389999999995  0.84758389999999995  0.84758389999999995  0.84758389999999995  0.84758389999999995  0.84758389999999995  0.84758389999999995  0.84758389999999995
     0.84758389999999995  0.84758389999999995  0.84758389999999995  0.84758389999999995  0.84758389999999995  0.84758389999999995  0.84758389999999995  0.84758389999999995  0.84758389999999995  0.84758389999999995
     0.84758389999999995  0.84758389999999995  0.84758389999999995  0.84758389999999995  0.84758389999999995  0.84758389999999995  0.84758389999999995  0.84758389999999995  0.84758389999999995  0.84758389999999995
     0.84758389999999995  0.84758389999999995  0.84758389999999995  0.84758389999999995  0.84758389999999995  0.84758389999999995  0.84758389999999995  0.84758389999999995  0.84758389999999995  0.84758389999999995
     0.84758389999999995  0.84758389999999995  0.84758389999999995  0.84758389999999995  0.84758389999999995  0.84758389999999995  0.84758389999999995  0.84758389999999995  0.84758389999999995  0.84758389999999995
     0.84758389999999995  0.84758389999999995  0.84758389999999995  0.84758389999999995  0.84758389999999995  0.84758389999999995  0.84758389999999995  0.84758389999999995  0.84758389999999995  0.84758389999999995
     0.84758389999999995  0.84758389999999995  0.84758389999999995  0.84758389999999995  0.84758389999999995  0.84758389999999995  0.84758389999999995  0.84758389999999995  0.84758389999999995  0.84758389999999995
     0.84758389999999995  0.84758389999999995  0.84758389999999995  0.84758389999999995  0.84758389999999995  0.84758389999999995  0.84758389999999995  0.84758389999999995  0.84758389999999995  0.84758389999999995
     0.84758389999999995  0.84758389999999995  0.84758389999999995  0.84758389999999995  0.84758389999999995  0.84758389999999995  0.84758389999999995  0.84758389999999995  0.84758389999999995  0.84758389999999995
     0.84758389999999995  0.84758389999999995  0.84758389999999995  0.84758389999999995  0.84758389999999995  0.84758389999999995  0.84758389999999995  0.84758389999999995  0.84758389999999995  0.84758389999999995
     0.84758389999999995  0.84758389999999995  0.84758389999999995  0.84758389999999995  0.84758389999999995  0.84758389999999995  0.84758389999999995  0.84758389999999995  0.84758389999999995  0.84758389999999995
     0.84758389999999995  0.84758389999999995  0.84758389999999995  0.84758389999999995  0.84758389999999995  0.84758389999999995  0.84758389999999995  0.84758389999999995  0.84758389999999995  0.84758389999999995
     0.84758389999999995  0.84758389999999995  0.84758389999999995  0.84758389999999995  0.84758389999999995  0.84758389999999995  0.84758389999999995  0.84758389999999995  0.84758389999999995  0.84758389999999995
     0.84758389999999995  0.84758389999999995  0.84758389999999995  0.84758389999999995  0.84758389999999995  0.84758389999999995  0.84758389999999995  0.84758389999999995  0.84758389999999995  0.84758389999999995
     0.84758389999999995  0.84758389999999995  0.84758389999999995  0.84758389999999995  0.84758389999999995  0.84758389999999995  0.84758389999999995  0.84758389999999995  0.84758389999999995  0.84758389999999995
     0.84758389999999995  0.84758389999999995  0.84758389999999995  0.84758389999999995  0.84758389999999995  0.84758389999999995  0.84758389999999995  0.84758389999999995  0.84758389999999995  0.84758389999999995
     0.84758389999999995  0.84758389999999995  0.84758389999999995  0.84758389999999995  0.84758389999999995  0.84758389999999995  0.84758389999999995  0.84758389999999995  0.84758389999999995  0.84758389999999995
     0.84758389999999995  0.84758389999999995  0.84758389999999995  0.84758389999999995  0.84758389999999995  0.84758389999999995  0.84758389999999995  0.84758389999999995  0.84758389999999995  0.84758389999999995
     0.84758389999999995  0.84758389999999995  0.84758389999999995  0.84758389999999995  0.84758389999999995  0.84758389999999995  0.84758389999999995  0.84758389999999995  0.84758389999999995  0.84758389999999995
     0.84758389999999995  0.84758389999999995  0.84758389999999995  0.84758389999999995  0.84758389999999995  0.84758389999999995  0.84758389999999995  0.84758389999999995  0.84758389999999995  0.84758389999999995
     0.84758389999999995  0.84758389999999995  0.84758389999999995  0.84758389999999995  0.84758389999999995  0.84758389999999995  0.84758389999999995  0.84758389999999995  0.84758389999999995  0.84758389999999995
     0.84758389999999995  0.84758389999999995  0.84758389999999995  0.84758389999999995  0.84758389999999995  0.84758389999999995  0.84758389999999995  0.84758389999999995  0.84758389999999995  0.84758389999999995
     0.84758389999999995  0.84758389999999995  0.84758389999999995  0.84758389999999995  0.84758389999999995  0.84758389999999995  0.84758389999999995  0.84758389999999995  0.84758389999999995  0.84758389999999995
     0.84758389999999995  0.84758389999999995  0.84758389999999995  0.84758389999999995  0.84758389999999995  0.84758389999999995  0.84758389999999995  0.84758389999999995  0.84758389999999995  0.84758389999999995
     0.84758389999999995  0.84758389999999995  0.84758389999999995  0.84758389999999995  0.84758389999999995  0.84758389999999995  0.84758389999999995  0.84758389999999995  0.84758389999999995  0.84758389999999995
     0.84758389999999995  0.84758389999999995  0.84758389999999995  0.84758389999999995  0.84758389999999995  0.84758389999999995  0.84758389999999995  0.84758389999999995  0.84758389999999995  0.84758389999999995
     0.84758389999999995  0.84758389999999995  0.84758389999999995  0.84758389999999995  0.84758389999999995  0.84758389999999995  0.84758389999999995  0.84758389999999995  0.84758389999999995  0.84758389999999995
     0.84758389999999995  0.84758389999999995  0.84758389999999995  0.84758389999999995  0.84758389999999995  0.84758389999999995  0.84758389999999995  0.84758389999999995  0.84758389999999995  0.84758389999999995
     0.84758389999999995  0.84758389999999995  0.84758389999999995  0.84758389999999995  0.84758389999999995  0.84758389999999995  0.84758389999999995  0.84758389999999995  0.84758389999999995  0.84758389999999995
     0.84758389999999995  0.84758389999999995  0.84758389999999995  0.84758389999999995  0.84758389999999995  0.84758389999999995  0.84758389999999995  0.84758389999999995  0.84758389999999995  0.84758389999999995
     0.84758389999999995  0.84758389999999995  0.84758389999999995  0.84758389999999995  0.84758389999999995  0.84758389999999995  0.84758389999999995  0.84758389999999995  0.84758389999999995  0.84758389999999995
     0.84758389999999995  0.84758389999999995  0.84758389999999995  0.84758389999999995  0.84758389999999995  0.84758389999999995  0.84758389999999995  0.84758389999999995  0.84758389999999995  0.84758389999999995
     0.84758389999999995  0.84758389999999995  0.84758389999999995  0.84758389999999995  0.84758389999999995  0.84758389999999995  0.84758389999999995  0.84758389999999995  0.84758389999999995  0.84758389999999995
     0.84758389999999995  0.84758389999999995  0.84758389999999995  0.84758389999999995  0.84758389999999995  0.84758389999999995  0.84758389999999995  0.84758389999999995  0.84758389999999995  0.84758389999999995
     0.84758389999999995  0.84758389999999995  0.84758389999999995  0.84758389999999995  0.84758389999999995  0.84758389999999995  0.84758389999999995  0.84758389999999995  0.84758389999999995  0.84758389999999995
     0.84758389999999995  0.84758389999999995  0.84758389999999995  0.84758389999999995  0.84758389999999995  0.84758389999999995  0.84758389999999995  0.84758389999999995  0.84758389999999995  0.84758389999999995
     0.84758389999999995  0.84758389999999995  0.84758389999999995  0.84758389999999995  0.84758389999999995  0.84758389999999995  0.84758389999999995  0.84758389999999995  0.84758389999999995  0.84758389999999995
     0.84758389999999995  0.84758389999999995  0.84758389999999995  0.84758389999999995  0.84758389999999995  0.84758389999999995  0.84758389999999995  0.84758389999999995  0.84758389999999995  0.84758389999999995