begin options
  SAVE_FLOWS
  ALTERNATIVE_CELL_AVERAGING AMT-HMK
  HIGHEST_CELL_SATURATION
end options
#
BEGIN GRIDDATA
  icelltype LAYERED
    constant 1
  k LAYERED
    constant 1.00
  K33
    constant 1.00
END GRIDDATA

