begin options
  SAVE_FLOWS
  ALTERNATIVE_CELL_AVERAGING AMT-HMK
  DRY_CELL_SATURATION
end options
#
BEGIN GRIDDATA
  icelltype
    constant 1

  k
    INTERNAL
       8.475839E-01   8.475839E-01   8.475839E-01
       8.475839E-01   8.475839E-01   8.475839E-01
       8.475839E-01   8.475839E-01   8.475839E-01
       8.475839E-01   8.475839E-01   8.475839E-01
       8.475839E-01   8.475840E-07
       8.475839E-01   8.475839E-01   8.475839E-01
       8.475839E-01   8.475839E-01   8.475839E-01
       8.475839E-01   8.475839E-01   8.475839E-01   8.475839E-01   8.475839E-01   8.475839E-01
       8.475839E-01   8.475839E-01   8.475839E-01   8.475839E-01   8.475839E-01   8.475839E-01
       8.475839E-01   8.475839E-01   8.475839E-01   8.475839E-01   8.475839E-01   8.475839E-01

END GRIDDATA




